Circuit: * C:\Users\ArvindNeeraj\Downloads\cad optimization\R10943157_finalexam\Q5b.asc

Direct Newton iteration for .op point succeeded.

Date: Fri Jun 17 03:57:50 2022
Total elapsed time: 0.021 seconds.

tnom = 27
temp = 27
method = trap
totiter = 3
traniter = 0
tranpoints = 0
accept = 0
rejected = 0
matrix size = 10
fillins = 6
solver = Normal
Matrix Compiler1: 952 bytes object code size
Matrix Compiler2: 986 bytes object code size
