Circuit: * C:\Users\ArvindNeeraj\Downloads\cad optimization\R10943157_finalexam\Q1\P1.asc

Direct Newton iteration for .op point succeeded.

Date: Fri Jun 17 13:16:54 2022
Total elapsed time: 0.114 seconds.

tnom = 27
temp = 27
method = modified trap
totiter = 457
traniter = 454
tranpoints = 228
accept = 228
rejected = 0
matrix size = 8
fillins = 0
solver = Normal
Matrix Compiler1: 344 bytes object code size  0.1/0.1/[0.1]
Matrix Compiler2: off  [0.1]/0.1/0.1

